--------- BEAMDYN with OpenFAST INPUT FILE -------------------------------------------
Generated with AeroElasticSE FAST driver
---------------------- SIMULATION CONTROL --------------------------------------
False                  Echo        - Echo input data to "<RootName>.ech" (flag)
True                   QuasiStaticInit - Use quasistatic pre-conditioning with centripetal accelerations in initialization (flag) [dynamic solve only]
0                      rhoinf      - Numerical damping parameter for generalized-alpha integrator
2                      quadrature  - Quadrature method: 1=Gaussian; 2=Trapezoidal (switch)
2                      refine      - Refinement factor for trapezoidal quadrature (-). DEFAULT = 1 [used only when quadrature=2]
DEFAULT                n_fact      - Factorization frequency (-). DEFAULT = 5
DEFAULT                DTBeam      - Time step size (s).
DEFAULT                load_retries - Number of factored load retries before quitting the aimulation
DEFAULT                NRMax       - Max number of iterations in Newton-Ralphson algorithm (-). DEFAULT = 10
DEFAULT                stop_tol    - Tolerance for stopping criterion (-)
DEFAULT                tngt_stf_fd - Flag to use finite differenced tangent stiffness matrix (-)
DEFAULT                tngt_stf_comp - Flag to compare analytical finite differenced tangent stiffness matrix  (-)
DEFAULT                tngt_stf_pert - perturbation size for finite differencing (-)
DEFAULT                tngt_stf_difftol - Maximum allowable relative difference between analytical and fd tangent stiffness (-)
True                   RotStates   - Orient states in the rotating frame during linearization? (flag) [used only when linearizing]
---------------------- GEOMETRY PARAMETER --------------------------------------
1                      member_total - Total number of members (-)
51                     kp_total    - Total number of key points (-) [must be at least 3]
1 51                               - Member number; Number of key points in this member
        kp_xr                 kp_yr                 kp_zr             initial_twist    
         (m)                   (m)                   (m)                  (deg)        
 8.93299744438941e-15  0.00000000000000e+00 -8.07793566951278e-28  1.20000000000000e+01
-4.06018742640477e-03  0.00000000000000e+00  2.75600000000000e+00  1.19990241707893e+01
-6.51453979497900e-03  0.00000000000000e+00  5.51200000000000e+00  1.19921283070608e+01
-7.43137137218364e-03  0.00000000000000e+00  8.26800000000000e+00  1.19717502672583e+01
-7.25279708388363e-03  0.00000000000000e+00  1.10240000000000e+01  1.19273992728756e+01
-6.09195207353666e-03  0.00000000000000e+00  1.37800000000000e+01  1.18439978166475e+01
-4.13963320746355e-03  0.00000000000000e+00  1.65360000000000e+01  1.16994887695831e+01
-1.71353327872787e-03  0.00000000000000e+00  1.92920000000000e+01  1.14599066556834e+01
 9.30916413225317e-04  0.00000000000000e+00  2.20480000000000e+01  1.10697691301088e+01
 3.50505120873865e-03  0.00000000000000e+00  2.48040000000000e+01  1.04300060642301e+01
 5.75254918142102e-03  0.00000000000000e+00  2.75600000000000e+01  9.32947962861874e+00
 7.39967268643568e-03  0.00000000000000e+00  3.03160000000000e+01  8.12842832928441e+00
 8.18795797177125e-03  0.00000000000000e+00  3.30720000000000e+01  7.28109160109454e+00
 8.11223755810628e-03  0.00000000000000e+00  3.58280000000000e+01  6.61228722595343e+00
 6.82148167485677e-03  0.00000000000000e+00  3.85840000000000e+01  6.04653882864835e+00
 4.44017627404924e-03  0.00000000000000e+00  4.13400000000000e+01  5.54303253740594e+00
 1.02549303307495e-03  0.00000000000000e+00  4.40960000000000e+01  5.07728598371355e+00
-3.28729331628290e-03  0.00000000000000e+00  4.68520000000000e+01  4.63411051773756e+00
-8.26808723830696e-03  0.00000000000000e+00  4.96080000000000e+01  4.20279858045810e+00
-1.36721266216123e-02  0.00000000000000e+00  5.23640000000000e+01  3.77651775995386e+00
-1.93127858787998e-02  0.00000000000000e+00  5.51200000000000e+01  3.35079859710508e+00
-2.51128655544309e-02  0.00000000000000e+00  5.78760000000000e+01  2.92249904366001e+00
-3.12059280402405e-02  0.00000000000000e+00  6.06320000000000e+01  2.48976236726406e+00
-3.79682625628164e-02  0.00000000000000e+00  6.33880000000000e+01  2.05164551087980e+00
-4.60887180498754e-02  0.00000000000000e+00  6.61440000000000e+01  1.60782350676297e+00
-5.65498516316160e-02  0.00000000000000e+00  6.89000000000000e+01  1.15851690820876e+00
-7.06045676154860e-02  0.00000000000000e+00  7.16560000000000e+01  7.04328063813219e-01
-8.97533162524441e-02  0.00000000000000e+00  7.44120000000000e+01  2.46183498194555e-01
-1.15658000351843e-01  0.00000000000000e+00  7.71680000000000e+01 -2.14670888843007e-01
-1.50087396036552e-01  0.00000000000000e+00  7.99240000000000e+01 -6.76754643598442e-01
-1.95022048744029e-01  0.00000000000000e+00  8.26800000000000e+01 -1.13847657813773e+00
-2.52413770918510e-01  0.00000000000000e+00  8.54360000000000e+01 -1.59803442023053e+00
-3.24200448738577e-01  0.00000000000000e+00  8.81920000000000e+01 -2.05346610964755e+00
-4.12539025483967e-01  0.00000000000000e+00  9.09480000000000e+01 -2.50277250895588e+00
-5.19543285389156e-01  0.00000000000000e+00  9.37040000000000e+01 -2.94383532850148e+00
-6.47283985665426e-01  0.00000000000000e+00  9.64600000000000e+01 -3.37445252506409e+00
-7.98125147741226e-01  0.00000000000000e+00  9.92160000000000e+01 -3.79252817443884e+00
-9.74360064972069e-01  0.00000000000000e+00  1.01972000000000e+02 -4.19587314920028e+00
-1.17847157545055e+00  0.00000000000000e+00  1.04728000000000e+02 -4.58241765647039e+00
-1.41315562627562e+00  0.00000000000000e+00  1.07484000000000e+02 -4.95022502421487e+00
-1.68121248955040e+00  0.00000000000000e+00  1.10240000000000e+02 -5.29734224381195e+00
-1.98576341356359e+00  0.00000000000000e+00  1.12996000000000e+02 -5.62179322079160e+00
-2.33020406868640e+00  0.00000000000000e+00  1.15752000000000e+02 -5.92108406396307e+00
-2.71808718889985e+00  0.00000000000000e+00  1.18508000000000e+02 -6.19080403445563e+00
-3.15328032484736e+00  0.00000000000000e+00  1.21264000000000e+02 -6.42236438143334e+00
-3.63964643580844e+00  0.00000000000000e+00  1.24020000000000e+02 -6.59826221619965e+00
-4.18067336363061e+00  0.00000000000000e+00  1.26776000000000e+02 -6.68501544883106e+00
-4.77879172889169e+00  0.00000000000000e+00  1.29532000000000e+02 -6.63239545640856e+00
-5.43577038162635e+00  0.00000000000000e+00  1.32288000000000e+02 -6.39023608010672e+00
-6.15984704416385e+00  0.00000000000000e+00  1.35044000000000e+02 -5.95767880911997e+00
-7.00000000000000e+00  0.00000000000000e+00  1.37800000000000e+02 -4.95260629954663e+00
---------------------- MESH PARAMETER ------------------------------------------
10                     order_elem  - Order of interpolation (basis) function (-)
---------------------- MATERIAL PARAMETER --------------------------------------
"IEA-22-280-RWT_BeamDyn_Blade.dat" BldFile     - Name of file containing properties for blade (quoted string)
---------------------- PITCH ACTUATOR PARAMETERS -------------------------------
False                  UsePitchAct - Whether a pitch actuator should be used (flag)
0.0                    PitchJ      - Pitch actuator inertia (kg-m^2) [used only when UsePitchAct is true]
0.0                    PitchK      - Pitch actuator stiffness (kg-m^2/s^2) [used only when UsePitchAct is true]
0.0                    PitchC      - Pitch actuator damping (kg-m^2/s) [used only when UsePitchAct is true]
---------------------- OUTPUTS -------------------------------------------------
False                  SumPrint    - Print summary data to "<RootName>.sum" (flag)
"ES10.3E2"             OutFmt      - Format used for text tabular output, excluding the time channel.
0                      NNodeOuts   - Number of nodes to output to file [0 - 9] (-)
                       OutNd       - Nodes whose values will be output  (-)
          OutList            - The next line(s) contains a list of output parameters. See OutListParameters.xlsx for a listing of available output channels, (-)
"RootMxr"
"RootMyr"
"RootMzr"
"TipRDxr"
"TipRDyr"
"TipRDzr"
"TipTDxr"
"TipTDyr"
"TipTDzr"
END of input file (the word "END" must appear in the first 3 columns of this last OutList line)
====== Outputs for all blade stations (same ending as above for B1N1.... =========================== [optional section]
1                      BldNd_BlOutNd - Future feature will allow selecting a portion of the nodes to output.  Not implemented yet. (-)
                   OutList     - The next line(s) contains a list of output parameters.  See OutListParameters.xlsx, BeamDyn_Nodes tab for a listing of available output channels, (-)
"Fxr"
"Fyr"
"Fzr"
"Mxr"
"Myr"
"Mzr"
"RDxr"
"RDyr"
"RDzr"
"TDxr"
"TDyr"
"TDzr"
END of input file (the word "END" must appear in the first 3 columns of this last OutList line)
---------------------------------------------------------------------------------------