--------- BEAMDYN with OpenFAST INPUT FILE -------------------------------------------
Generated with AeroElasticSE FAST driver
---------------------- SIMULATION CONTROL --------------------------------------
False                  Echo        - Echo input data to "<RootName>.ech" (flag)
True                   QuasiStaticInit - Use quasistatic pre-conditioning with centripetal accelerations in initialization (flag) [dynamic solve only]
0                      rhoinf      - Numerical damping parameter for generalized-alpha integrator
2                      quadrature  - Quadrature method: 1=Gaussian; 2=Trapezoidal (switch)
2                      refine      - Refinement factor for trapezoidal quadrature (-). DEFAULT = 1 [used only when quadrature=2]
DEFAULT                n_fact      - Factorization frequency (-). DEFAULT = 5
DEFAULT                DTBeam      - Time step size (s).
DEFAULT                load_retries - Number of factored load retries before quitting the aimulation
DEFAULT                NRMax       - Max number of iterations in Newton-Ralphson algorithm (-). DEFAULT = 10
DEFAULT                stop_tol    - Tolerance for stopping criterion (-)
DEFAULT                tngt_stf_fd - Flag to use finite differenced tangent stiffness matrix (-)
DEFAULT                tngt_stf_comp - Flag to compare analytical finite differenced tangent stiffness matrix  (-)
DEFAULT                tngt_stf_pert - perturbation size for finite differencing (-)
DEFAULT                tngt_stf_difftol - Maximum allowable relative difference between analytical and fd tangent stiffness (-)
True                   RotStates   - Orient states in the rotating frame during linearization? (flag) [used only when linearizing]
---------------------- GEOMETRY PARAMETER --------------------------------------
1                      member_total - Total number of members (-)
30                     kp_total    - Total number of key points (-) [must be at least 3]
1 30                               - Member number; Number of key points in this member
        kp_xr                 kp_yr                 kp_zr             initial_twist    
         (m)                   (m)                   (m)                  (deg)        
 0.00000000000000e+00  0.00000000000000e+00 -8.07793566951278e-28  1.20000000000000e+01
-2.17000000000000e-05  0.00000000000000e+00  4.75172413793103e+00  1.19918718689617e+01
-1.83909245000948e-04  0.00000000000000e+00  9.50344827586207e+00  1.19507664399764e+01
-8.08611008009961e-04  0.00000000000000e+00  1.42551724137931e+01  1.18228742369606e+01
-2.66167652859553e-03  0.00000000000000e+00  1.90068965517241e+01  1.14612524290425e+01
-6.38581149217480e-03  0.00000000000000e+00  2.37586206896552e+01  1.06445537359473e+01
-1.29056033347384e-02  0.00000000000000e+00  2.85103448275862e+01  8.85894075307135e+00
-2.40786659993419e-02  0.00000000000000e+00  3.32620689655172e+01  7.25295445640853e+00
-4.10937487691512e-02  0.00000000000000e+00  3.80137931034483e+01  6.17246134023931e+00
-6.53100346588448e-02  0.00000000000000e+00  4.27655172413793e+01  5.30262143373142e+00
-9.94023346492664e-02  0.00000000000000e+00  4.75172413793103e+01  4.53002035492888e+00
-1.45952394870545e-01  0.00000000000000e+00  5.22689655172414e+01  3.79127378945396e+00
-2.06167167327110e-01  0.00000000000000e+00  5.70206896551724e+01  3.05521507277565e+00
-2.82938631550025e-01  0.00000000000000e+00  6.17724137931034e+01  2.30894029254901e+00
-3.81780367620739e-01  0.00000000000000e+00  6.65241379310345e+01  1.54510184102666e+00
-5.03130042240538e-01  0.00000000000000e+00  7.12758620689655e+01  7.66233911740552e-01
-6.49947871366040e-01  0.00000000000000e+00  7.60275862068965e+01 -2.40443044202669e-02
-8.27326785212549e-01  0.00000000000000e+00  8.07793103448276e+01 -8.20073495948090e-01
-1.04162879739959e+00  0.00000000000000e+00  8.55310344827586e+01 -1.61286541504030e+00
-1.29335203147757e+00  0.00000000000000e+00  9.02827586206896e+01 -2.39309665944984e+00
-1.58650455211113e+00  0.00000000000000e+00  9.50344827586207e+01 -3.15109551620938e+00
-1.92529459225885e+00  0.00000000000000e+00  9.97862068965517e+01 -3.87684716800357e+00
-2.32149650846679e+00  0.00000000000000e+00  1.04537931034483e+02 -4.55337370901577e+00
-2.77471684202655e+00  0.00000000000000e+00  1.09289655172414e+02 -5.17476793405261e+00
-3.28876484176373e+00  0.00000000000000e+00  1.14041379310345e+02 -5.73261514422974e+00
-3.86872070111242e+00  0.00000000000000e+00  1.18793103448276e+02 -6.21282798963417e+00
-4.52515289776901e+00  0.00000000000000e+00  1.23544827586207e+02 -6.56444807240589e+00
-5.26607068318334e+00  0.00000000000000e+00  1.28296551724138e+02 -6.63755623781503e+00
-6.09207825172414e+00  0.00000000000000e+00  1.33048275862069e+02 -6.23692513007208e+00
-7.00000000000000e+00  0.00000000000000e+00  1.37800000000000e+02 -4.95260629954663e+00
---------------------- MESH PARAMETER ------------------------------------------
10                     order_elem  - Order of interpolation (basis) function (-)
---------------------- MATERIAL PARAMETER --------------------------------------
"IEA-22-280-RWT_BeamDyn_Blade.dat" BldFile     - Name of file containing properties for blade (quoted string)
---------------------- PITCH ACTUATOR PARAMETERS -------------------------------
False                  UsePitchAct - Whether a pitch actuator should be used (flag)
0.0                    PitchJ      - Pitch actuator inertia (kg-m^2) [used only when UsePitchAct is true]
0.0                    PitchK      - Pitch actuator stiffness (kg-m^2/s^2) [used only when UsePitchAct is true]
0.0                    PitchC      - Pitch actuator damping (kg-m^2/s) [used only when UsePitchAct is true]
---------------------- OUTPUTS -------------------------------------------------
False                  SumPrint    - Print summary data to "<RootName>.sum" (flag)
"ES10.3E2"             OutFmt      - Format used for text tabular output, excluding the time channel.
1                      NNodeOuts   - Number of nodes to output to file [0 - 9] (-)
48                     OutNd       - Nodes whose values will be output  (-)
          OutList            - The next line(s) contains a list of output parameters. See OutListParameters.xlsx for a listing of available output channels, (-)
"RootMxr"
"RootMyr"
"RootMzr"
"TipTDxr"
"TipTDyr"
"TipTDzr"
"N1RDxr"
"N1RDyr"
"N1RDzr"
END of input file (the word "END" must appear in the first 3 columns of this last OutList line)
---------------------------------------------------------------------------------------